*Heading
** Job name: td11_test Model name: td11
** Generated by: Abaqus/CAE 6.14-2
*Preprint, echo=NO, model=NO, history=NO, contact=NO
**
** PARTS
**
*Part, name=PART-3
*Node
1,0,-1455,1669
2,0,-1273.125,1669
3,0,-1091.25,1669
4,0,-909.375,1669
5,0,-727.5,1669
6,163.590607,-1455,1660.96326
7,163.590607,-1273.125,1660.96326
8,163.590607,-1091.25,1660.96326
9,163.590607,-909.375,1660.96326
10,163.590607,-727.5,1660.96326
11,325.605743,-1455,1636.93066
12,325.605743,-1273.125,1636.93066
13,325.605743,-1091.25,1636.93066
14,325.605743,-909.375,1636.93066
15,325.605743,-727.5,1636.93066
16,484.485138,-1455,1597.13342
17,484.485138,-1273.125,1597.13342
18,484.485138,-1091.25,1597.13342
19,484.485138,-909.375,1597.13342
20,484.485138,-727.5,1597.13342
** ... 145 like lines cut
*Element, type=S4R
1,1,2,7,6
2,2,3,8,7
3,3,4,9,8
4,4,5,10,9
5,6,7,12,11
6,7,8,13,12
7,8,9,14,13
8,9,10,15,14
9,11,12,17,16
10,12,13,18,17
11,13,14,19,18
12,14,15,20,19
13,16,17,22,21
14,17,18,23,22
15,18,19,24,23
16,19,20,25,24
17,21,22,27,26
18,22,23,28,27
19,23,24,29,28
20,24,25,30,29
** ... 108 like lines cut
*Elset, elset=Set-1, generate
  1,  128,   1
** Section: Section-1
*Shell Section, elset=Set-1, material=Material-1
6., 5
*End Part
**  
**
** ASSEMBLY
**
*Assembly, name=Assembly
**  
*Instance, name=PART-3-1, part=PART-3
*End Instance
**  
*Nset, nset=SET-1, instance=PART-3-1, generate
 1,  5,  1
*Nset, nset=SET-2, instance=PART-3-1, generate
 166,  170,  1
*End Assembly
** 
** MATERIALS
** 
*Material, name=Material-1
*Density
 2.7e-09,
*Elastic
66700., 0.3
** 
** BOUNDARY CONDITIONS
** 
** Name: BC-1 Type: Symmetry/Antisymmetry/Encastre
*Boundary
Set-1, ENCASTRE
** ----------------------------------------------------------------
** 
*STEP
*MATRIX GENERATE, STIFFNESS, MASS
*MATRIX OUTPUT, STIFFNESS, MASS, FORMATE=COORDINATE
*END STEP
** STEP: freq
** 
*Step, name=freq, nlgeom=NO, perturbation
*Frequency, eigensolver=Lanczos, acoustic coupling=on, normalization=displacement
10, , , , , 
** 
** OUTPUT REQUESTS
** 
*Restart, write, frequency=0
** 
** FIELD OUTPUT: F-Output-1
** 
*Output, field, variable=PRESELECT
*End Step
